/*--------------------------------*- C++ -*----------------------------------*\
| =========                 |                                                 |
| \\      /  F ield         | OpenFOAM: The Open Source CFD Toolbox           |
|  \\    /   O peration     | Version:  2312                                  |
|   \\  /    A nd           | Website:  www.openfoam.com                      |
|    \\/     M anipulation  |                                                 |
\*---------------------------------------------------------------------------*/
FoamFile
{
    version     2.0;
    format      ascii;
    arch        "LSB;label=32;scalar=64";
    class       polyBoundaryMesh;
    location    "constant/polyMesh";
    object      boundary;
}
// * * * * * * * * * * * * * * * * * * * * * * * * * * * * * * * * * * * * * //

3
(
    emptySideWalls
    {
        type            empty;
        inGroups        1(empty);
        nFaces          204;
        startFace       50;
    }
    inlet
    {
        type            cyclic;
        inGroups        1(cyclic);
        nFaces          1;
        startFace       254;
        matchTolerance  0.0001;
        transform       unknown;
        neighbourPatch  outlet;
    }
    outlet
    {
        type            cyclic;
        inGroups        1(cyclic);
        nFaces          1;
        startFace       255;
        matchTolerance  0.0001;
        transform       unknown;
        neighbourPatch  inlet;
    }
)

// ************************************************************************* //
