/*--------------------------------*- C++ -*----------------------------------*\
| =========                 |                                                 |
| \\      /  F ield         | OpenFOAM: The Open Source CFD Toolbox           |
|  \\    /   O peration     | Version:  v2212                                 |
|   \\  /    A nd           | Website:  www.openfoam.com                      |
|    \\/     M anipulation  |                                                 |
\*---------------------------------------------------------------------------*/
FoamFile
{
    version     2.0;
    format      ascii;
    class       volScalarField;
    object      T;
}
// * * * * * * * * * * * * * * * * * * * * * * * * * * * * * * * * * * * * * //

dimensions      [0 0 0 1 0 0 0];

internalField   uniform 0;
/*
internalField	#codeStream
{
	codeInclude
	#{
		#include "fvCFD.H"
		#include "Ostream.H"
	#};

	codeOptions
	#{
		-I$(LIB_SRC)/finiteVolume/lnInclude \
		-I$(LIB_SRC)/meshTools/lnInclude
	#};

	codeLibs
	#{
		-lmeshTools \
		-lfiniteVolume
	#};

	code
	#{
		const IOdictionary& d = static_cast<const IOdictionary&>(dict);
		const fvMesh& mesh = refCast<const fvMesh>(d.db());

		scalarField T(mesh.nCells(), 0.);

		const scalar pi = constant::mathematical::pi;

		forAll(T,i)
		{
			const scalar x = mesh.C()[i][0];

			T[i] = 0.5 + 0.3*Foam::sin(2*pi*x);
		}
		T.writeEntry("",os);

	#};
};
*/

boundaryField
{
    inlet
    {
//	type	cyclic;
        type    fixedValue;
	value	uniform 0.5;
    }

    outlet
    {
//	type	cyclic;
        type    zeroGradient;
//	value	uniform 0.5;
    }

    emptySideWalls
    {
        type    empty;
    }

}


// ************************************************************************* //
